/*--------------------------------*- C++ -*----------------------------------*\
| =========                 |                                                 |
| \\      /  F ield         | OpenFOAM: The Open Source CFD Toolbox           |
|  \\    /   O peration     | Version:  v2006                                 |
|   \\  /    A nd           | Website:  www.openfoam.com                      |
|    \\/     M anipulation  |                                                 |
\*---------------------------------------------------------------------------*/
FoamFile
{
    version     2.0;
    format      ascii;
    class       dictionary;
    object      transportProperties;
}
// * * * * * * * * * * * * * * * * * * * * * * * * * * * * * * * * * * * * * //

phases (water vapour); 

TSat                646;   // saturation temperature

pSat                21.9E6;

thermalPhaseChangeTwoPhaseMixture  Hardt;//interfaceHeatResistance;

R                   461.0; //
TSatLocal           false;

sigma               0.07e-03;
 

water
{
    transportModel  Newtonian;
    nu              1.16e-07;
    rho             402.4;


    Cp              2.18e5;
    Cv             1 /*2.18e5*/;

    kappa           0.545;
    hf              0;
}

vapour
{
    transportModel  Newtonian;
    nu              1.33e-07;
    rho             242.7;

    Cv            1 /* 3.52e5*/;

    Cp              3.52e5;      
    kappa           0.538;
    hf              276.4e03;
}

HardtCoeffs
{
  
  Cv                0.1; 
  rv                1;
  rc                0;
 
}

LeeCoeffs
{
  rv                1E3;
  rc                0;
}

interfaceHeatResistanceCoeffs
{
  
HTC              1E4;
maxAlphaRate    1;
spread          3;
} 

Prt             21.11941115;

deltaX          5e-6;



// ************************************************************************* //
