/*--------------------------------*- C++ -*----------------------------------*\
  =========                 |
  \\      /  F ield         | OpenFOAM: The Open Source CFD Toolbox
   \\    /   O peration     | Website:  https://openfoam.org
    \\  /    A nd           | Version:  6
     \\/     M anipulation  |
\*---------------------------------------------------------------------------*/
FoamFile
{
    version     2.0;
    format      ascii;
    class       dictionary;
    location    "system";
    object      controlDict;
}
// * * * * * * * * * * * * * * * * * * * * * * * * * * * * * * * * * * * * * //

application     LSThermalPhaseChangeFlow;
startFrom       startTime;
startTime       0;
stopAt          endTime;
endTime         3;
deltaT          0.0005;
writeControl    adjustableRunTime;
writeInterval   0.1;
purgeWrite      0;
writeFormat     binary;
writePrecision  6;
writeCompression off;
timeFormat      general;
timePrecision   6;
runTimeModifiable yes;
adjustTimeStep  yes;
maxCo           1;
maxAlphaCo      1;
maxDeltaT       0.005;

functions
{
    isosurfaces
    {
        type            surfaces;
        libs ("libsampling.so");
        writeControl    adjustableRunTime;
        writeInterval   .1;
        surfaceFormat   raw;
        fields          ( alpha.water );

        surfaces
        (

          interpolatedIso
          {
              type            isoSurface;
              isoField        alpha.water;
              isoValue        0.5;
              interpolate     true;
              regularise      false;
          }
        );
    }
}
// ************************************************************************* //
