/*--------------------------------*- C++ -*----------------------------------*\
| =========                 |                                                 |
| \\      /  F ield         | OpenFOAM: The Open Source CFD Toolbox           |
|  \\    /   O peration     | Version:  v2006                                 |
|   \\  /    A nd           | Website:  www.openfoam.com                      |
|    \\/     M anipulation  |                                                 |
\*---------------------------------------------------------------------------*/
FoamFile
{
    version     2.0;
    format      ascii;
    class       dictionary;
    location    "system";
    object      controlDict;
}
// * * * * * * * * * * * * * * * * * * * * * * * * * * * * * * * * * * * * * //

application     LSThermalPhaseChangeFlow;
startFrom       latestTime;
startTime       0;
stopAt          endTime;
endTime         1;
deltaT          1e-18;
writeControl    adjustableRunTime;
writeInterval   0.01;
purgeWrite      0;
writeFormat     ascii;
writePrecision  6;
writeCompression off;
timeFormat      general;
timePrecision   8;
runTimeModifiable yes;
adjustTimeStep  yes;
maxCo           0.1;
maxAlphaCo      0.1;
maxDeltaT       0.1;

functions
{
    interfaceParameters
    {
        type interfaceParameters;
        libs ("libinterfaceParametersFunctionObject.so");
        phase alpha.water;
        writeControl    writeTime;
        writeToFile true;
        enabled true;
    }


    // *********************************************************************** //
    // *** coded functionObject for calculating Berenson number ************** //
    // *********************************************************************** //

    NusseltCorrelation
    {
        // Load the library containing the 'coded' functionObject
        libs ("libutilityFunctionObjects.so");
        type coded;
        writeControl    adjustableRunTime;
        writeInterval   0.001;
        // Name of on-the-fly generated functionObject
        name analyticalSolution;
        // Code
        codeWrite
        #{        
	    scalar sigma_ = 0.07e-03; 
	    scalar rhog_ = 242.7;
            scalar rhol_ = 402.4;
            scalar g_ = 9.81;
            scalar Hlg_ = 276.4e03;
            scalar kg_ = 0.538;
            scalar mug_ = 32.38e-6;
            scalar DT_ = 5;
            scalar Cpg_ = 3.52e5;
            scalar lambda_ = sqrt( sigma_/((rhol_-rhog_)*g_) );
            const volScalarField& T=mesh().lookupObject<volScalarField>("T");
            // Compute Berenson's correlation number
	        scalar Nub_ = 0.425*pow(((rhog_*(rhol_-rhog_)*g_*Hlg_)/(kg_*mug_*abs(DT_))),0.25)*pow(lambda_,0.75);
	        Info << "Berenson correlation number = " << Nub_ << endl; 
            // Compute Klimenko's correlation number
            scalar Beta_ = Cpg_ * DT_ / Hlg_;
            scalar Pr_ = Cpg_ * mug_ / kg_;
            scalar Gr_ = pow(rhog_,2)*g_*pow(lambda_,3)/pow(mug_,2)*(rhol_/rhog_-1);
            scalar Nuk_ = 0.19*pow(Gr_,0.33333333)*pow(Pr_,0.333333)*0.89*pow(Beta_,-0.333333);
            Info << "Klimenko correlation number = " << Nuk_ << endl; 
            label down = mesh().boundary().findPatchID("down");

            volScalarField Nusselt
            (
                IOobject
                (
                    "Nusselt",
                    mesh().time().timeName(),
                    mesh(),
                    IOobject::NO_READ,
                    IOobject::AUTO_WRITE
                ),
                mesh(),
                dimensionedScalar("Nusselt", dimless, 0.0)
            );
            Nusselt.boundaryFieldRef()[down] = lambda_/DT_*T.boundaryField()[down].snGrad();
            scalar area = gSum(mesh().magSf().boundaryField()[down]);
            scalar avgNusselt = gSum(Nusselt.boundaryField()[down] * mesh().magSf().boundaryField()[down])/area;
            Info << "Space-averaged Nusselt lambda = " << avgNusselt << "\n" << endl; 
        #};
    }   
}

// ************************************************************************* //
